REMARK  4 active torsions:
REMARK  status: ('A' for Active; 'I' for Inactive)
REMARK    1  A    between atoms: C1_1  and  C6_6 
REMARK    2  A    between atoms: C11_11  and  C2_2 
REMARK    3  A    between atoms: C2_2  and  C3_3 
REMARK    4  A    between atoms: C6_6  and  C8_8 
ROOT
HETATM    1  C1  IBP B 601      16.786  12.747  67.198  1.00 29.03     0.189 C 
HETATM    2  O1  IBP B 601      15.844  12.746  68.077  1.00 29.40    -0.647 OA
HETATM    3  O2  IBP B 601      16.625  13.239  66.038  1.00 26.61    -0.647 OA
ENDROOT
BRANCH   1   4
HETATM    4  C6  IBP B 601      18.142  12.164  67.526  1.00 22.26     0.110 C 
HETATM    5  C7  IBP B 601      18.567  11.108  66.525  1.00 26.57     0.016 C 
BRANCH   4   6
HETATM    6  C8  IBP B 601      19.191  13.240  67.737  1.00 25.96    -0.012 A 
HETATM    7  C13 IBP B 601      19.767  13.947  66.682  1.00 22.96    -0.004 A 
HETATM    8  C12 IBP B 601      20.736  14.910  66.977  1.00 22.28    -0.005 A 
HETATM    9  C11 IBP B 601      21.135  15.190  68.272  1.00 29.37    -0.022 A 
HETATM   10  C10 IBP B 601      20.561  14.466  69.318  1.00 26.92    -0.005 A 
HETATM   11  C9  IBP B 601      19.602  13.508  69.034  1.00 24.90    -0.004 A 
BRANCH   9  12
HETATM   12  C2  IBP B 601      22.202  16.247  68.565  1.00 23.90     0.026 C 
BRANCH  12  13
HETATM   13  C3  IBP B 601      21.617  17.648  68.647  1.00 23.93     0.004 C 
HETATM   14  C4  IBP B 601      20.857  17.813  69.964  1.00 24.36     0.000 C 
HETATM   15  C5  IBP B 601      22.763  18.645  68.667  1.00 25.40     0.000 C 
ENDBRANCH  12  13
ENDBRANCH   9  12
ENDBRANCH   4   6
ENDBRANCH   1   4
TORSDOF 4
