REMARK  4 active torsions:
REMARK  status: ('A' for Active; 'I' for Inactive)
REMARK    1  A    between atoms: C_0  and  C_3 
REMARK    2  A    between atoms: C_3  and  C_5 
REMARK    3  A    between atoms: C_8  and  C_11 
REMARK    4  A    between atoms: C_11  and  C_12 
ROOT
HETATM    1  C   LIG A   0A     16.740  26.186  24.378  1.00  0.00     0.189 C 
HETATM    2  O   LIG A   0A     16.218  27.252  24.879  1.00  0.00    -0.647 OA
HETATM    3  O   LIG A   0A     17.842  25.714  24.798  1.00  0.00    -0.647 OA
ENDROOT
BRANCH   1   4
HETATM    4  C   LIG A   0A     16.042  25.442  23.262  1.00  0.00     0.110 C 
HETATM    5  C   LIG A   0A     16.951  24.428  22.597  1.00  0.00     0.016 C 
BRANCH   4   6
HETATM    6  C   LIG A   0A     14.718  24.851  23.711  1.00  0.00    -0.012 A 
HETATM    7  C   LIG A   0A     14.468  24.479  25.031  1.00  0.00    -0.004 A 
HETATM    8  C   LIG A   0A     13.222  23.930  25.343  1.00  0.00    -0.005 A 
HETATM    9  C   LIG A   0A     12.230  23.751  24.395  1.00  0.00    -0.022 A 
HETATM   10  C   LIG A   0A     12.497  24.115  23.074  1.00  0.00    -0.005 A 
HETATM   11  C   LIG A   0A     13.731  24.657  22.756  1.00  0.00    -0.004 A 
BRANCH   9  12
HETATM   12  C   LIG A   0A     10.876  23.143  24.764  1.00  0.00     0.026 C 
BRANCH  12  13
HETATM   13  C   LIG A   0A     10.875  22.546  26.163  1.00  0.00     0.004 C 
HETATM   14  C   LIG A   0A     10.899  21.032  26.038  1.00  0.00     0.000 C 
HETATM   15  C   LIG A   0A      9.576  22.915  26.880  1.00  0.00     0.000 C 
ENDBRANCH  12  13
ENDBRANCH   9  12
ENDBRANCH   4   6
ENDBRANCH   1   4
TORSDOF 4
