REMARK VINA RESULT:      -7.6      0.000      0.000
REMARK  4 active torsions:
REMARK  status: ('A' for Active; 'I' for Inactive)
REMARK    1  A    between atoms: C1_1  and  C6_6 
REMARK    2  A    between atoms: C11_11  and  C2_2 
REMARK    3  A    between atoms: C2_2  and  C3_3 
REMARK    4  A    between atoms: C6_6  and  C8_8 
REMARK viewdock state: V
HETATM    1  C8  IBP B 601      31.982 -22.008 -17.224  1.00 25.96    -0.044 A 
HETATM    2  C9  IBP B 601      33.029 -22.550 -16.494  1.00 24.90     0.008 A 
HETATM    3  C10 IBP B 601      32.815 -23.414 -15.433  1.00 26.92     0.007 A 
HETATM    4  C11 IBP B 601      31.509 -23.758 -15.082  1.00 29.37    -0.058 A 
HETATM    5  C12 IBP B 601      30.464 -23.203 -15.801  1.00 22.28     0.007 A 
HETATM    6  C13 IBP B 601      30.671 -22.333 -16.875  1.00 22.96     0.008 A 
HETATM    7  C6  IBP B 601      32.316 -21.063 -18.363  1.00 22.26     0.115 C 
HETATM    8  C7  IBP B 601      33.164 -21.709 -19.441  1.00 26.57     0.026 C 
HETATM    9  C1  IBP B 601      32.915 -19.765 -17.868  1.00 29.03     0.181 C 
HETATM   10  O1  IBP B 601      32.164 -18.853 -17.353  1.00 29.40    -0.647 OA
HETATM   11  O2  IBP B 601      34.173 -19.623 -17.974  1.00 26.61    -0.647 OA
HETATM   12  C2  IBP B 601      31.253 -24.704 -13.908  1.00 23.90     0.042 C 
HETATM   13  C3  IBP B 601      31.704 -24.112 -12.582  1.00 23.93    -0.019 C 
HETATM   14  C4  IBP B 601      30.482 -23.773 -11.727  1.00 24.36     0.010 C 
HETATM   15  C5  IBP B 601      32.494 -25.168 -11.829  1.00 25.40     0.010 C 
ENDMDL
REMARK VINA RESULT:      -7.5      2.920      6.159
REMARK  4 active torsions:
REMARK  status: ('A' for Active; 'I' for Inactive)
REMARK    1  A    between atoms: C1_1  and  C6_6 
REMARK    2  A    between atoms: C11_11  and  C2_2 
REMARK    3  A    between atoms: C2_2  and  C3_3 
REMARK    4  A    between atoms: C6_6  and  C8_8 
REMARK viewdock state: V
HETATM    1  C8  IBP B 601      32.660 -23.243 -15.746  1.00 25.96    -0.044 A 
HETATM    2  C9  IBP B 601      32.190 -22.265 -16.609  1.00 24.90     0.008 A 
HETATM    3  C10 IBP B 601      33.036 -21.551 -17.442  1.00 26.92     0.007 A 
HETATM    4  C11 IBP B 601      34.406 -21.820 -17.419  1.00 29.37    -0.058 A 
HETATM    5  C12 IBP B 601      34.876 -22.785 -16.544  1.00 22.28     0.007 A 
HETATM    6  C13 IBP B 601      34.028 -23.511 -15.704  1.00 22.96     0.008 A 
HETATM    7  C6  IBP B 601      31.656 -23.963 -14.865  1.00 22.26     0.115 C 
HETATM    8  C7  IBP B 601      30.229 -23.830 -15.361  1.00 26.57     0.026 C 
HETATM    9  C1  IBP B 601      31.791 -23.573 -13.410  1.00 29.03     0.181 C 
HETATM   10  O1  IBP B 601      31.433 -22.401 -13.012  1.00 29.40    -0.647 OA
HETATM   11  O2  IBP B 601      32.255 -24.444 -12.612  1.00 26.61    -0.647 OA
HETATM   12  C2  IBP B 601      35.358 -21.037 -18.325  1.00 23.90     0.042 C 
HETATM   13  C3  IBP B 601      35.233 -21.448 -19.784  1.00 23.93    -0.019 C 
HETATM   14  C4  IBP B 601      34.948 -20.216 -20.643  1.00 24.36     0.010 C 
HETATM   15  C5  IBP B 601      36.570 -22.009 -20.239  1.00 25.40     0.010 C 
ENDMDL
REMARK VINA RESULT:      -7.1      3.675      5.454
REMARK  4 active torsions:
REMARK  status: ('A' for Active; 'I' for Inactive)
REMARK    1  A    between atoms: C1_1  and  C6_6 
REMARK    2  A    between atoms: C11_11  and  C2_2 
REMARK    3  A    between atoms: C2_2  and  C3_3 
REMARK    4  A    between atoms: C6_6  and  C8_8 
REMARK viewdock state: V
HETATM    1  C8  IBP B 601      31.870 -23.561 -15.077  1.00 25.96    -0.044 A 
HETATM    2  C9  IBP B 601      31.057 -22.828 -14.226  1.00 24.90     0.008 A 
HETATM    3  C10 IBP B 601      29.760 -22.483 -14.566  1.00 26.92     0.007 A 
HETATM    4  C11 IBP B 601      29.245 -22.883 -15.800  1.00 29.37    -0.058 A 
HETATM    5  C12 IBP B 601      30.064 -23.601 -16.655  1.00 22.28     0.007 A 
HETATM    6  C13 IBP B 601      31.373 -23.956 -16.319  1.00 22.96     0.008 A 
HETATM    7  C6  IBP B 601      33.281 -23.881 -14.620  1.00 22.26     0.115 C 
HETATM    8  C7  IBP B 601      34.305 -23.773 -15.733  1.00 26.57     0.026 C 
HETATM    9  C1  IBP B 601      33.360 -25.210 -13.902  1.00 29.03     0.181 C 
HETATM   10  O1  IBP B 601      33.743 -26.269 -14.529  1.00 29.40    -0.647 OA
HETATM   11  O2  IBP B 601      33.047 -25.231 -12.672  1.00 26.61    -0.647 OA
HETATM   12  C2  IBP B 601      27.818 -22.505 -16.196  1.00 23.90     0.042 C 
HETATM   13  C3  IBP B 601      27.761 -21.802 -17.544  1.00 23.93    -0.019 C 
HETATM   14  C4  IBP B 601      26.370 -21.200 -17.753  1.00 24.36     0.010 C 
HETATM   15  C5  IBP B 601      28.747 -20.647 -17.523  1.00 25.40     0.010 C 
ENDMDL
REMARK VINA RESULT:      -6.9     22.142     23.966
REMARK  4 active torsions:
REMARK  status: ('A' for Active; 'I' for Inactive)
REMARK    1  A    between atoms: C1_1  and  C6_6 
REMARK    2  A    between atoms: C11_11  and  C2_2 
REMARK    3  A    between atoms: C2_2  and  C3_3 
REMARK    4  A    between atoms: C6_6  and  C8_8 
REMARK viewdock state: P
HETATM    1  C8  IBP B 601      38.108  -9.303   3.083  1.00 25.96    -0.044 A 
HETATM    2  C9  IBP B 601      36.724  -9.321   3.174  1.00 24.90     0.008 A 
HETATM    3  C10 IBP B 601      35.913  -9.110   2.072  1.00 26.92     0.007 A 
HETATM    4  C11 IBP B 601      36.497  -8.873   0.827  1.00 29.37    -0.058 A 
HETATM    5  C12 IBP B 601      37.878  -8.839   0.741  1.00 22.28     0.007 A 
HETATM    6  C13 IBP B 601      38.704  -9.054   1.848  1.00 22.96     0.008 A 
HETATM    7  C6  IBP B 601      38.911  -9.535   4.350  1.00 22.26     0.115 C 
HETATM    8  C7  IBP B 601      38.043  -9.802   5.563  1.00 26.57     0.026 C 
HETATM    9  C1  IBP B 601      39.913  -8.430   4.599  1.00 29.03     0.181 C 
HETATM   10  O1  IBP B 601      39.532  -7.199   4.638  1.00 29.40    -0.647 OA
HETATM   11  O2  IBP B 601      41.125  -8.766   4.775  1.00 26.61    -0.647 OA
HETATM   12  C2  IBP B 601      35.618  -8.630  -0.401  1.00 23.90     0.042 C 
HETATM   13  C3  IBP B 601      35.852  -7.258  -1.014  1.00 23.93    -0.019 C 
HETATM   14  C4  IBP B 601      35.913  -7.379  -2.538  1.00 24.36     0.010 C 
HETATM   15  C5  IBP B 601      34.660  -6.376  -0.685  1.00 25.40     0.010 C 
ENDMDL
REMARK VINA RESULT:      -6.7     15.433     16.471
REMARK  4 active torsions:
REMARK  status: ('A' for Active; 'I' for Inactive)
REMARK    1  A    between atoms: C1_1  and  C6_6 
REMARK    2  A    between atoms: C11_11  and  C2_2 
REMARK    3  A    between atoms: C2_2  and  C3_3 
REMARK    4  A    between atoms: C6_6  and  C8_8 
REMARK viewdock state: P
HETATM    1  C8  IBP B 601      29.789 -33.363  -5.290  1.00 25.96    -0.044 A 
HETATM    2  C9  IBP B 601      30.513 -33.669  -6.432  1.00 24.90     0.008 A 
HETATM    3  C10 IBP B 601      29.917 -34.225  -7.552  1.00 26.92     0.007 A 
HETATM    4  C11 IBP B 601      28.546 -34.488  -7.540  1.00 29.37    -0.058 A 
HETATM    5  C12 IBP B 601      27.828 -34.197  -6.392  1.00 22.28     0.007 A 
HETATM    6  C13 IBP B 601      28.421 -33.632  -5.259  1.00 22.96     0.008 A 
HETATM    7  C6  IBP B 601      30.533 -32.765  -4.110  1.00 22.26     0.115 C 
HETATM    8  C7  IBP B 601      31.895 -32.215  -4.484  1.00 26.57     0.026 C 
HETATM    9  C1  IBP B 601      30.606 -33.719  -2.939  1.00 29.03     0.181 C 
HETATM   10  O1  IBP B 601      29.936 -34.821  -2.951  1.00 29.40    -0.647 OA
HETATM   11  O2  IBP B 601      31.354 -33.396  -1.965  1.00 26.61    -0.647 OA
HETATM   12  C2  IBP B 601      27.872 -35.110  -8.763  1.00 23.90     0.042 C 
HETATM   13  C3  IBP B 601      26.718 -36.024  -8.383  1.00 23.93    -0.019 C 
HETATM   14  C4  IBP B 601      25.397 -35.402  -8.837  1.00 24.36     0.010 C 
HETATM   15  C5  IBP B 601      26.875 -37.334  -9.136  1.00 25.40     0.010 C 
ENDMDL
REMARK VINA RESULT:      -6.4     22.297     23.961
REMARK  4 active torsions:
REMARK  status: ('A' for Active; 'I' for Inactive)
REMARK    1  A    between atoms: C1_1  and  C6_6 
REMARK    2  A    between atoms: C11_11  and  C2_2 
REMARK    3  A    between atoms: C2_2  and  C3_3 
REMARK    4  A    between atoms: C6_6  and  C8_8 
REMARK viewdock state: P
HETATM    1  C8  IBP B 601      38.332  -9.262   2.813  1.00 25.96    -0.044 A 
HETATM    2  C9  IBP B 601      39.540  -9.803   3.224  1.00 24.90     0.008 A 
HETATM    3  C10 IBP B 601      40.603  -9.972   2.353  1.00 26.92     0.007 A 
HETATM    4  C11 IBP B 601      40.464  -9.587   1.018  1.00 29.37    -0.058 A 
HETATM    5  C12 IBP B 601      39.251  -9.062   0.606  1.00 22.28     0.007 A 
HETATM    6  C13 IBP B 601      38.175  -8.885   1.479  1.00 22.96     0.008 A 
HETATM    7  C6  IBP B 601      37.222  -9.126   3.839  1.00 22.26     0.115 C 
HETATM    8  C7  IBP B 601      35.872  -8.830   3.217  1.00 26.57     0.026 C 
HETATM    9  C1  IBP B 601      37.574  -8.141   4.931  1.00 29.03     0.181 C 
HETATM   10  O1  IBP B 601      37.785  -8.549   6.136  1.00 29.40    -0.647 OA
HETATM   11  O2  IBP B 601      37.661  -6.916   4.610  1.00 26.61    -0.647 OA
HETATM   12  C2  IBP B 601      41.624  -9.773   0.039  1.00 23.90     0.042 C 
HETATM   13  C3  IBP B 601      42.281 -11.138   0.178  1.00 23.93    -0.019 C 
HETATM   14  C4  IBP B 601      41.473 -12.180  -0.596  1.00 24.36     0.010 C 
HETATM   15  C5  IBP B 601      43.656 -11.075  -0.463  1.00 25.40     0.010 C 
ENDMDL
REMARK VINA RESULT:      -6.3      1.715      2.478
REMARK  4 active torsions:
REMARK  status: ('A' for Active; 'I' for Inactive)
REMARK    1  A    between atoms: C1_1  and  C6_6 
REMARK    2  A    between atoms: C11_11  and  C2_2 
REMARK    3  A    between atoms: C2_2  and  C3_3 
REMARK    4  A    between atoms: C6_6  and  C8_8 
REMARK viewdock state: V
HETATM    1  C8  IBP B 601      33.623 -21.747 -17.569  1.00 25.96    -0.044 A 
HETATM    2  C9  IBP B 601      34.732 -22.440 -17.108  1.00 24.90     0.008 A 
HETATM    3  C10 IBP B 601      34.687 -23.220 -15.965  1.00 26.92     0.007 A 
HETATM    4  C11 IBP B 601      33.493 -23.319 -15.248  1.00 29.37    -0.058 A 
HETATM    5  C12 IBP B 601      32.392 -22.612 -15.700  1.00 22.28     0.007 A 
HETATM    6  C13 IBP B 601      32.428 -21.825 -16.855  1.00 22.96     0.008 A 
HETATM    7  C6  IBP B 601      33.774 -20.910 -18.826  1.00 22.26     0.115 C 
HETATM    8  C7  IBP B 601      33.467 -21.684 -20.093  1.00 26.57     0.026 C 
HETATM    9  C1  IBP B 601      35.117 -20.218 -18.893  1.00 29.03     0.181 C 
HETATM   10  O1  IBP B 601      36.011 -20.607 -19.736  1.00 29.40    -0.647 OA
HETATM   11  O2  IBP B 601      35.315 -19.246 -18.100  1.00 26.61    -0.647 OA
HETATM   12  C2  IBP B 601      33.427 -24.168 -13.978  1.00 23.90     0.042 C 
HETATM   13  C3  IBP B 601      32.570 -25.411 -14.161  1.00 23.93    -0.019 C 
HETATM   14  C4  IBP B 601      33.446 -26.579 -14.615  1.00 24.36     0.010 C 
HETATM   15  C5  IBP B 601      31.985 -25.792 -12.811  1.00 25.40     0.010 C 
ENDMDL
REMARK VINA RESULT:      -6.2     20.779     22.136
REMARK  4 active torsions:
REMARK  status: ('A' for Active; 'I' for Inactive)
REMARK    1  A    between atoms: C1_1  and  C6_6 
REMARK    2  A    between atoms: C11_11  and  C2_2 
REMARK    3  A    between atoms: C2_2  and  C3_3 
REMARK    4  A    between atoms: C6_6  and  C8_8 
REMARK viewdock state: P
HETATM    1  C8  IBP B 601      40.068 -10.021   0.632  1.00 25.96    -0.044 A 
HETATM    2  C9  IBP B 601      39.221  -9.763  -0.435  1.00 24.90     0.008 A 
HETATM    3  C10 IBP B 601      38.010  -9.112  -0.270  1.00 26.92     0.007 A 
HETATM    4  C11 IBP B 601      37.624  -8.695   1.005  1.00 29.37    -0.058 A 
HETATM    5  C12 IBP B 601      38.463  -8.968   2.071  1.00 22.28     0.007 A 
HETATM    6  C13 IBP B 601      39.688  -9.623   1.913  1.00 22.96     0.008 A 
HETATM    7  C6  IBP B 601      41.369 -10.750   0.353  1.00 22.26     0.115 C 
HETATM    8  C7  IBP B 601      42.337  -9.938  -0.484  1.00 26.57     0.026 C 
HETATM    9  C1  IBP B 601      41.137 -12.129  -0.223  1.00 29.03     0.181 C 
HETATM   10  O1  IBP B 601      41.463 -12.391  -1.443  1.00 29.40    -0.647 OA
HETATM   11  O2  IBP B 601      40.625 -13.004   0.540  1.00 26.61    -0.647 OA
HETATM   12  C2  IBP B 601      36.287  -7.982   1.208  1.00 23.90     0.042 C 
HETATM   13  C3  IBP B 601      35.519  -7.815  -0.094  1.00 23.93    -0.019 C 
HETATM   14  C4  IBP B 601      34.528  -8.969  -0.260  1.00 24.36     0.010 C 
HETATM   15  C5  IBP B 601      34.703  -6.537  -0.009  1.00 25.40     0.010 C 
ENDMDL
REMARK VINA RESULT:      -6.2     14.326     15.770
REMARK  4 active torsions:
REMARK  status: ('A' for Active; 'I' for Inactive)
REMARK    1  A    between atoms: C1_1  and  C6_6 
REMARK    2  A    between atoms: C11_11  and  C2_2 
REMARK    3  A    between atoms: C2_2  and  C3_3 
REMARK    4  A    between atoms: C6_6  and  C8_8 
REMARK viewdock state: P
HETATM    1  C8  IBP B 601      28.698 -34.403  -7.477  1.00 25.96    -0.044 A 
HETATM    2  C9  IBP B 601      30.045 -34.079  -7.411  1.00 24.90     0.008 A 
HETATM    3  C10 IBP B 601      30.629 -33.601  -6.251  1.00 26.92     0.007 A 
HETATM    4  C11 IBP B 601      29.847 -33.441  -5.105  1.00 29.37    -0.058 A 
HETATM    5  C12 IBP B 601      28.500 -33.749  -5.177  1.00 22.28     0.007 A 
HETATM    6  C13 IBP B 601      27.903 -34.234  -6.344  1.00 22.96     0.008 A 
HETATM    7  C6  IBP B 601      28.147 -34.909  -8.797  1.00 22.26     0.115 C 
HETATM    8  C7  IBP B 601      27.921 -33.803  -9.809  1.00 26.57     0.026 C 
HETATM    9  C1  IBP B 601      26.917 -35.769  -8.610  1.00 29.03     0.181 C 
HETATM   10  O1  IBP B 601      27.029 -36.994  -8.224  1.00 29.40    -0.647 OA
HETATM   11  O2  IBP B 601      25.789 -35.234  -8.836  1.00 26.61    -0.647 OA
HETATM   12  C2  IBP B 601      30.473 -32.907  -3.816  1.00 23.90     0.042 C 
HETATM   13  C3  IBP B 601      31.986 -32.789  -3.916  1.00 23.93    -0.019 C 
HETATM   14  C4  IBP B 601      32.375 -31.328  -4.149  1.00 24.36     0.010 C 
HETATM   15  C5  IBP B 601      32.588 -33.203  -2.584  1.00 25.40     0.010 C 
ENDMDL
