MODEL 1
REMARK VINA RESULT:      -7.4      0.000      0.000
REMARK  4 active torsions:
REMARK  status: ('A' for Active; 'I' for Inactive)
REMARK    1  A    between atoms: C1_1  and  C6_6 
REMARK    2  A    between atoms: C11_11  and  C2_2 
REMARK    3  A    between atoms: C2_2  and  C3_3 
REMARK    4  A    between atoms: C6_6  and  C8_8 
ROOT
HETATM    1  C1  IBP B 601      16.750  26.232  24.396  1.00 29.03     0.189 C 
HETATM    2  O1  IBP B 601      16.228  27.298  24.897  1.00 29.40    -0.647 OA
HETATM    3  O2  IBP B 601      17.852  25.760  24.816  1.00 26.61    -0.647 OA
ENDROOT
BRANCH   1   4
HETATM    4  C6  IBP B 601      16.052  25.488  23.280  1.00 22.26     0.110 C 
HETATM    5  C7  IBP B 601      16.961  24.474  22.615  1.00 26.57     0.016 C 
BRANCH   4   6
HETATM    6  C8  IBP B 601      14.728  24.897  23.729  1.00 25.96    -0.012 A 
HETATM    7  C13 IBP B 601      14.478  24.525  25.049  1.00 22.96    -0.004 A 
HETATM    8  C12 IBP B 601      13.232  23.976  25.361  1.00 22.28    -0.005 A 
HETATM    9  C11 IBP B 601      12.240  23.797  24.413  1.00 29.37    -0.022 A 
HETATM   10  C10 IBP B 601      12.507  24.161  23.092  1.00 26.92    -0.005 A 
HETATM   11  C9  IBP B 601      13.741  24.703  22.774  1.00 24.90    -0.004 A 
BRANCH   9  12
HETATM   12  C2  IBP B 601      10.886  23.189  24.782  1.00 23.90     0.026 C 
BRANCH  12  13
HETATM   13  C3  IBP B 601      10.885  22.592  26.181  1.00 23.93     0.004 C 
HETATM   14  C4  IBP B 601       9.586  22.961  26.898  1.00 24.36     0.000 C 
HETATM   15  C5  IBP B 601      10.909  21.078  26.056  1.00 25.40     0.000 C 
ENDBRANCH  12  13
ENDBRANCH   9  12
ENDBRANCH   4   6
ENDBRANCH   1   4
TORSDOF 4
ENDMDL
MODEL 2
REMARK VINA RESULT:      -7.1      1.263      2.163
REMARK  4 active torsions:
REMARK  status: ('A' for Active; 'I' for Inactive)
REMARK    1  A    between atoms: C1_1  and  C6_6 
REMARK    2  A    between atoms: C11_11  and  C2_2 
REMARK    3  A    between atoms: C2_2  and  C3_3 
REMARK    4  A    between atoms: C6_6  and  C8_8 
ROOT
HETATM    1  C1  IBP B 601      16.380  24.768  24.002  1.00 29.03     0.189 C 
HETATM    2  O1  IBP B 601      16.768  23.652  23.489  1.00 29.40    -0.647 OA
HETATM    3  O2  IBP B 601      17.157  25.498  24.694  1.00 26.61    -0.647 OA
ENDROOT
BRANCH   1   4
HETATM    4  C6  IBP B 601      14.967  25.262  23.787  1.00 22.26     0.110 C 
HETATM    5  C7  IBP B 601      14.548  25.174  22.333  1.00 26.57     0.016 C 
BRANCH   4   6
HETATM    6  C8  IBP B 601      13.981  24.602  24.732  1.00 25.96    -0.012 A 
HETATM    7  C13 IBP B 601      14.020  24.789  26.113  1.00 22.96    -0.004 A 
HETATM    8  C12 IBP B 601      13.076  24.126  26.902  1.00 22.28    -0.005 A 
HETATM    9  C11 IBP B 601      12.105  23.302  26.362  1.00 29.37    -0.022 A 
HETATM   10  C10 IBP B 601      12.084  23.112  24.980  1.00 26.92    -0.005 A 
HETATM   11  C9  IBP B 601      13.018  23.763  24.191  1.00 24.90    -0.004 A 
BRANCH   9  12
HETATM   12  C2  IBP B 601      11.086  22.585  27.251  1.00 23.90     0.026 C 
BRANCH  12  13
HETATM   13  C3  IBP B 601       9.680  23.138  27.077  1.00 23.93     0.004 C 
HETATM   14  C4  IBP B 601       8.731  22.011  26.665  1.00 24.36     0.000 C 
HETATM   15  C5  IBP B 601       9.199  23.655  28.422  1.00 25.40     0.000 C 
ENDBRANCH  12  13
ENDBRANCH   9  12
ENDBRANCH   4   6
ENDBRANCH   1   4
TORSDOF 4
ENDMDL
MODEL 3
REMARK VINA RESULT:      -6.8      3.243      6.161
REMARK  4 active torsions:
REMARK  status: ('A' for Active; 'I' for Inactive)
REMARK    1  A    between atoms: C1_1  and  C6_6 
REMARK    2  A    between atoms: C11_11  and  C2_2 
REMARK    3  A    between atoms: C2_2  and  C3_3 
REMARK    4  A    between atoms: C6_6  and  C8_8 
ROOT
HETATM    1  C1  IBP B 601      11.000  21.230  25.903  1.00 29.03     0.189 C 
HETATM    2  O1  IBP B 601      10.517  20.431  26.791  1.00 29.40    -0.647 OA
HETATM    3  O2  IBP B 601      11.733  20.816  24.951  1.00 26.61    -0.647 OA
ENDROOT
BRANCH   1   4
HETATM    4  C6  IBP B 601      10.697  22.710  25.956  1.00 22.26     0.110 C 
HETATM    5  C7  IBP B 601      10.013  23.107  27.250  1.00 26.57     0.016 C 
BRANCH   4   6
HETATM    6  C8  IBP B 601      11.919  23.555  25.646  1.00 25.96    -0.012 A 
HETATM    7  C13 IBP B 601      12.865  23.894  26.613  1.00 22.96    -0.004 A 
HETATM    8  C12 IBP B 601      13.950  24.689  26.233  1.00 22.28    -0.005 A 
HETATM    9  C11 IBP B 601      14.120  25.142  24.937  1.00 29.37    -0.022 A 
HETATM   10  C10 IBP B 601      13.159  24.808  23.981  1.00 26.92    -0.005 A 
HETATM   11  C9  IBP B 601      12.080  24.023  24.351  1.00 24.90    -0.004 A 
BRANCH   9  12
HETATM   12  C2  IBP B 601      15.315  26.016  24.550  1.00 23.90     0.026 C 
BRANCH  12  13
HETATM   13  C3  IBP B 601      16.599  25.211  24.423  1.00 23.93     0.004 C 
HETATM   14  C4  IBP B 601      16.800  24.787  22.967  1.00 24.36     0.000 C 
HETATM   15  C5  IBP B 601      17.767  26.111  24.788  1.00 25.40     0.000 C 
ENDBRANCH  12  13
ENDBRANCH   9  12
ENDBRANCH   4   6
ENDBRANCH   1   4
TORSDOF 4
ENDMDL
MODEL 4
REMARK VINA RESULT:      -6.7      1.643      2.674
REMARK  4 active torsions:
REMARK  status: ('A' for Active; 'I' for Inactive)
REMARK    1  A    between atoms: C1_1  and  C6_6 
REMARK    2  A    between atoms: C11_11  and  C2_2 
REMARK    3  A    between atoms: C2_2  and  C3_3 
REMARK    4  A    between atoms: C6_6  and  C8_8 
ROOT
HETATM    1  C1  IBP B 601      15.756  24.986  22.895  1.00 29.03     0.189 C 
HETATM    2  O1  IBP B 601      16.517  24.118  22.322  1.00 29.40    -0.647 OA
HETATM    3  O2  IBP B 601      14.941  25.705  22.239  1.00 26.61    -0.647 OA
ENDROOT
BRANCH   1   4
HETATM    4  C6  IBP B 601      15.800  25.173  24.395  1.00 22.26     0.110 C 
HETATM    5  C7  IBP B 601      16.051  26.617  24.784  1.00 26.57     0.016 C 
BRANCH   4   6
HETATM    6  C8  IBP B 601      14.585  24.575  25.081  1.00 25.96    -0.012 A 
HETATM    7  C13 IBP B 601      13.677  23.749  24.419  1.00 22.96    -0.004 A 
HETATM    8  C12 IBP B 601      12.581  23.259  25.134  1.00 22.28    -0.005 A 
HETATM    9  C11 IBP B 601      12.371  23.556  26.469  1.00 29.37    -0.022 A 
HETATM   10  C10 IBP B 601      13.280  24.394  27.116  1.00 26.92    -0.005 A 
HETATM   11  C9  IBP B 601      14.367  24.887  26.415  1.00 24.90    -0.004 A 
BRANCH   9  12
HETATM   12  C2  IBP B 601      11.159  23.008  27.225  1.00 23.90     0.026 C 
BRANCH  12  13
HETATM   13  C3  IBP B 601      10.220  22.228  26.319  1.00 23.93     0.004 C 
HETATM   14  C4  IBP B 601      10.486  20.729  26.468  1.00 24.36     0.000 C 
HETATM   15  C5  IBP B 601       8.794  22.475  26.782  1.00 25.40     0.000 C 
ENDBRANCH  12  13
ENDBRANCH   9  12
ENDBRANCH   4   6
ENDBRANCH   1   4
TORSDOF 4
ENDMDL
MODEL 5
REMARK VINA RESULT:      -6.0      3.399      6.122
REMARK  4 active torsions:
REMARK  status: ('A' for Active; 'I' for Inactive)
REMARK    1  A    between atoms: C1_1  and  C6_6 
REMARK    2  A    between atoms: C11_11  and  C2_2 
REMARK    3  A    between atoms: C2_2  and  C3_3 
REMARK    4  A    between atoms: C6_6  and  C8_8 
ROOT
HETATM    1  C1  IBP B 601      11.944  22.859  20.843  1.00 29.03     0.189 C 
HETATM    2  O1  IBP B 601      12.430  23.445  19.803  1.00 29.40    -0.647 OA
HETATM    3  O2  IBP B 601      11.368  21.729  20.772  1.00 26.61    -0.647 OA
ENDROOT
BRANCH   1   4
HETATM    4  C6  IBP B 601      12.055  23.501  22.207  1.00 22.26     0.110 C 
HETATM    5  C7  IBP B 601      11.405  22.661  23.288  1.00 26.57     0.016 C 
BRANCH   4   6
HETATM    6  C8  IBP B 601      13.482  23.897  22.538  1.00 25.96    -0.012 A 
HETATM    7  C13 IBP B 601      14.288  23.154  23.400  1.00 22.96    -0.004 A 
HETATM    8  C12 IBP B 601      15.586  23.608  23.654  1.00 22.28    -0.005 A 
HETATM    9  C11 IBP B 601      16.097  24.757  23.077  1.00 29.37    -0.022 A 
HETATM   10  C10 IBP B 601      15.276  25.498  22.226  1.00 26.92    -0.005 A 
HETATM   11  C9  IBP B 601      13.988  25.057  21.972  1.00 24.90    -0.004 A 
BRANCH   9  12
HETATM   12  C2  IBP B 601      17.520  25.232  23.377  1.00 23.90     0.026 C 
BRANCH  12  13
HETATM   13  C3  IBP B 601      17.685  25.683  24.819  1.00 23.93     0.004 C 
HETATM   14  C4  IBP B 601      19.155  25.997  25.097  1.00 24.36     0.000 C 
HETATM   15  C5  IBP B 601      16.910  26.976  25.008  1.00 25.40     0.000 C 
ENDBRANCH  12  13
ENDBRANCH   9  12
ENDBRANCH   4   6
ENDBRANCH   1   4
TORSDOF 4
ENDMDL
MODEL 6
REMARK VINA RESULT:      -5.8      9.978     11.480
REMARK  4 active torsions:
REMARK  status: ('A' for Active; 'I' for Inactive)
REMARK    1  A    between atoms: C1_1  and  C6_6 
REMARK    2  A    between atoms: C11_11  and  C2_2 
REMARK    3  A    between atoms: C2_2  and  C3_3 
REMARK    4  A    between atoms: C6_6  and  C8_8 
ROOT
HETATM    1  C1  IBP B 601      11.589  13.884  26.918  1.00 29.03     0.189 C 
HETATM    2  O1  IBP B 601      12.035  12.675  26.915  1.00 29.40    -0.647 OA
HETATM    3  O2  IBP B 601      11.685  14.635  27.938  1.00 26.61    -0.647 OA
ENDROOT
BRANCH   1   4
HETATM    4  C6  IBP B 601      10.935  14.464  25.684  1.00 22.26     0.110 C 
HETATM    5  C7  IBP B 601      11.014  13.521  24.500  1.00 26.57     0.016 C 
BRANCH   4   6
HETATM    6  C8  IBP B 601       9.525  14.954  25.961  1.00 25.96    -0.012 A 
HETATM    7  C13 IBP B 601       9.150  16.289  25.814  1.00 22.96    -0.004 A 
HETATM    8  C12 IBP B 601       7.831  16.645  26.108  1.00 22.28    -0.005 A 
HETATM    9  C11 IBP B 601       6.888  15.724  26.528  1.00 29.37    -0.022 A 
HETATM   10  C10 IBP B 601       7.280  14.393  26.684  1.00 26.92    -0.005 A 
HETATM   11  C9  IBP B 601       8.586  14.032  26.399  1.00 24.90    -0.004 A 
BRANCH   9  12
HETATM   12  C2  IBP B 601       5.452  16.144  26.847  1.00 23.90     0.026 C 
BRANCH  12  13
HETATM   13  C3  IBP B 601       4.455  15.025  26.590  1.00 23.93     0.004 C 
HETATM   14  C4  IBP B 601       3.706  14.695  27.882  1.00 24.36     0.000 C 
HETATM   15  C5  IBP B 601       3.423  15.523  25.592  1.00 25.40     0.000 C 
ENDBRANCH  12  13
ENDBRANCH   9  12
ENDBRANCH   4   6
ENDBRANCH   1   4
TORSDOF 4
ENDMDL
