@<TRIPOS>MOLECULE
VINA_Cox2_BestRes.pdb
32 32 1 0 0
SMALL
AMBER ff14SB


@<TRIPOS>ATOM
      1 C1         16.7500   26.2320   24.3960 C.2       1 IBP    0.0486
      2 O1         16.2280   27.2980   24.8970 O.co2     1 IBP   -0.5495
      3 O2         17.8520   25.7600   24.8160 O.co2     1 IBP   -0.5495
      4 C6         16.0520   25.4880   23.2800 C.3       1 IBP    0.0208
      5 C7         16.9610   24.4740   22.6150 C.3       1 IBP   -0.0531
      6 C8         14.7280   24.8970   23.7290 C.ar      1 IBP   -0.0395
      7 C13        14.4780   24.5250   25.0490 C.ar      1 IBP   -0.0581
      8 C12        13.2320   23.9760   25.3610 C.ar      1 IBP   -0.0587
      9 C11        12.2400   23.7970   24.4130 C.ar      1 IBP   -0.0477
     10 C10        12.5070   24.1610   23.0920 C.ar      1 IBP   -0.0587
     11 C9         13.7410   24.7030   22.7740 C.ar      1 IBP   -0.0581
     12 C2         10.8860   23.1890   24.7820 C.3       1 IBP   -0.0256
     13 C3         10.8850   22.5920   26.1810 C.3       1 IBP   -0.0431
     14 C4          9.5860   22.9610   26.8980 C.3       1 IBP   -0.0625
     15 C5         10.9090   21.0780   26.0560 C.3       1 IBP   -0.0625
     16 H6         15.8134   26.2310   22.5190 H         1 IBP    0.0412
     17 H13        15.2301   24.6581   25.8126 H         1 IBP    0.0626
     18 H12        13.0354   23.6800   26.3809 H         1 IBP    0.0626
     19 H10        11.7588   24.0213   22.3258 H         1 IBP    0.0626
     20 H9         13.9411   24.9834   21.7504 H         1 IBP    0.0626
     21 H22        10.6474   22.4032   24.0652 H         1 IBP    0.0319
     22 H23        10.1218   23.9642   24.7263 H         1 IBP    0.0319
     23 H3         11.7477   22.9429   26.7474 H         1 IBP    0.0300
     24 H51        11.8227   20.7693   25.5480 H         1 IBP    0.0233
     25 H52        10.0443   20.7474   25.4806 H         1 IBP    0.0233
     26 H53        10.8768   20.6308   27.0495 H         1 IBP    0.0233
     27 H71        16.4171   23.9640   21.8199 H         1 IBP    0.0240
     28 H72        17.2928   23.7444   23.3537 H         1 IBP    0.0240
     29 H73        17.8272   24.9840   22.1934 H         1 IBP    0.0240
     30 H41         9.5269   24.0437   27.0096 H         1 IBP    0.0233
     31 H42         8.7360   22.6094   26.3132 H         1 IBP    0.0233
     32 H43         9.5686   22.4928   27.8821 H         1 IBP    0.0233
@<TRIPOS>BOND
     1    1    2 2
     2    1    3 2
     3    1    4 1
     4    4    5 1
     5    4    6 1
     6    6    7 ar
     7    6   11 ar
     8    7    8 ar
     9    8    9 ar
    10    9   10 ar
    11    9   12 1
    12   10   11 ar
    13   12   13 1
    14   13   14 1
    15   13   15 1
    16   16    4 1
    17   17    7 1
    18   18    8 1
    19   19   10 1
    20   20   11 1
    21   21   12 1
    22   22   12 1
    23   23   13 1
    24   24   15 1
    25   25   15 1
    26   26   15 1
    27   27    5 1
    28   28    5 1
    29   29    5 1
    30   30   14 1
    31   31   14 1
    32   32   14 1
@<TRIPOS>SUBSTRUCTURE
     1 IBP     1 RESIDUE           4 B     IBP     0 ROOT
