REMARK  4 active torsions:
REMARK  status: ('A' for Active; 'I' for Inactive)
REMARK    1  A    between atoms: C1_1  and  C6_6 
REMARK    2  A    between atoms: C11_11  and  C2_2 
REMARK    3  A    between atoms: C2_2  and  C3_3 
REMARK    4  A    between atoms: C6_6  and  C8_8 
ROOT
HETATM    1  C8  IBP B 601     -40.620 -64.542 -28.188  1.00 25.96    -0.044 A 
HETATM    2  C9  IBP B 601     -41.427 -65.652 -27.991  1.00 24.90     0.008 A 
HETATM    3  C10 IBP B 601     -42.241 -65.780 -26.878  1.00 26.92     0.007 A 
HETATM    4  C11 IBP B 601     -42.258 -64.764 -25.921  1.00 29.37    -0.058 A 
HETATM    5  C12 IBP B 601     -41.439 -63.664 -26.111  1.00 22.28     0.007 A 
HETATM    6  C13 IBP B 601     -40.617 -63.526 -27.233  1.00 22.96     0.008 A 
ENDROOT
BRANCH   1   7
HETATM    7  C6  IBP B 601     -39.755 -64.498 -29.434  1.00 22.26     0.115 C 
HETATM    8  C7  IBP B 601     -38.292 -64.240 -29.132  1.00 26.57     0.026 C 
BRANCH   7   9
HETATM    9  C1  IBP B 601     -40.299 -63.542 -30.472  1.00 29.03     0.181 C 
HETATM   10  O1  IBP B 601     -40.876 -63.990 -31.534  1.00 29.40    -0.647 OA
HETATM   11  O2  IBP B 601     -40.172 -62.299 -30.247  1.00 26.61    -0.647 OA
ENDBRANCH   7   9
ENDBRANCH   1   7
BRANCH   4  12
HETATM   12  C2  IBP B 601     -43.144 -64.891 -24.681  1.00 23.90     0.042 C 
BRANCH  12  13
HETATM   13  C3  IBP B 601     -44.474 -64.172 -24.847  1.00 23.93    -0.019 C 
HETATM   14  C4  IBP B 601     -45.381 -64.976 -25.780  1.00 24.36     0.010 C 
HETATM   15  C5  IBP B 601     -45.162 -64.119 -23.494  1.00 25.40     0.010 C 
ENDBRANCH  12  13
ENDBRANCH   4  12
TORSDOF 4
