MODEL 1
REMARK VINA RESULT:      -3.0      0.000      0.000
REMARK  4 active torsions:
REMARK  status: ('A' for Active; 'I' for Inactive)
REMARK    1  A    between atoms: C1_1  and  C6_6 
REMARK    2  A    between atoms: C11_11  and  C2_2 
REMARK    3  A    between atoms: C2_2  and  C3_3 
REMARK    4  A    between atoms: C6_6  and  C8_8 
ROOT
HETATM    1  C1  IBP B 601       7.032  18.012  18.388  1.00 29.03     0.189 C 
HETATM    2  O1  IBP B 601       6.458  17.433  17.390  1.00 29.40    -0.647 OA
HETATM    3  O2  IBP B 601       7.639  19.121  18.266  1.00 26.61    -0.647 OA
ENDROOT
BRANCH   1   4
HETATM    4  C6  IBP B 601       6.991  17.387  19.764  1.00 22.26     0.110 C 
HETATM    5  C7  IBP B 601       8.358  17.357  20.419  1.00 26.57     0.016 C 
BRANCH   4   6
HETATM    6  C8  IBP B 601       5.924  18.011  20.644  1.00 25.96    -0.012 A 
HETATM    7  C13 IBP B 601       4.808  18.666  20.124  1.00 22.96    -0.004 A 
HETATM    8  C12 IBP B 601       3.887  19.221  21.017  1.00 22.28    -0.005 A 
HETATM    9  C11 IBP B 601       4.039  19.138  22.390  1.00 29.37    -0.022 A 
HETATM   10  C10 IBP B 601       5.168  18.493  22.897  1.00 26.92    -0.005 A 
HETATM   11  C9  IBP B 601       6.087  17.942  22.020  1.00 24.90    -0.004 A 
BRANCH   9  12
HETATM   12  C2  IBP B 601       3.017  19.760  23.343  1.00 23.90     0.026 C 
BRANCH  12  13
HETATM   13  C3  IBP B 601       3.588  19.981  24.735  1.00 23.93     0.004 C 
HETATM   14  C4  IBP B 601       3.366  21.434  25.158  1.00 24.36     0.000 C 
HETATM   15  C5  IBP B 601       2.817  19.111  25.713  1.00 25.40     0.000 C 
ENDBRANCH  12  13
ENDBRANCH   9  12
ENDBRANCH   4   6
ENDBRANCH   1   4
TORSDOF 4
ENDMDL
MODEL 2
REMARK VINA RESULT:      -3.0      3.649      5.646
REMARK  4 active torsions:
REMARK  status: ('A' for Active; 'I' for Inactive)
REMARK    1  A    between atoms: C1_1  and  C6_6 
REMARK    2  A    between atoms: C11_11  and  C2_2 
REMARK    3  A    between atoms: C2_2  and  C3_3 
REMARK    4  A    between atoms: C6_6  and  C8_8 
ROOT
HETATM    1  C1  IBP B 601       4.736  17.342  25.654  1.00 29.03     0.189 C 
HETATM    2  O1  IBP B 601       3.892  17.769  26.528  1.00 29.40    -0.647 OA
HETATM    3  O2  IBP B 601       4.834  16.110  25.357  1.00 26.61    -0.647 OA
ENDROOT
BRANCH   1   4
HETATM    4  C6  IBP B 601       5.646  18.307  24.929  1.00 22.26     0.110 C 
HETATM    5  C7  IBP B 601       7.111  18.023  25.198  1.00 26.57     0.016 C 
BRANCH   4   6
HETATM    6  C8  IBP B 601       5.320  18.401  23.450  1.00 25.96    -0.012 A 
HETATM    7  C13 IBP B 601       6.158  17.889  22.461  1.00 22.96    -0.004 A 
HETATM    8  C12 IBP B 601       5.778  18.036  21.124  1.00 22.28    -0.005 A 
HETATM    9  C11 IBP B 601       4.601  18.662  20.752  1.00 29.37    -0.022 A 
HETATM   10  C10 IBP B 601       3.777  19.182  21.751  1.00 26.92    -0.005 A 
HETATM   11  C9  IBP B 601       4.149  19.043  23.078  1.00 24.90    -0.004 A 
BRANCH   9  12
HETATM   12  C2  IBP B 601       4.211  18.813  19.280  1.00 23.90     0.026 C 
BRANCH  12  13
HETATM   13  C3  IBP B 601       4.262  20.261  18.817  1.00 23.93     0.004 C 
HETATM   14  C4  IBP B 601       5.387  20.436  17.795  1.00 24.36     0.000 C 
HETATM   15  C5  IBP B 601       2.960  20.582  18.104  1.00 25.40     0.000 C 
ENDBRANCH  12  13
ENDBRANCH   9  12
ENDBRANCH   4   6
ENDBRANCH   1   4
TORSDOF 4
ENDMDL
MODEL 3
REMARK VINA RESULT:      -3.0      1.331      1.917
REMARK  4 active torsions:
REMARK  status: ('A' for Active; 'I' for Inactive)
REMARK    1  A    between atoms: C1_1  and  C6_6 
REMARK    2  A    between atoms: C11_11  and  C2_2 
REMARK    3  A    between atoms: C2_2  and  C3_3 
REMARK    4  A    between atoms: C6_6  and  C8_8 
ROOT
HETATM    1  C1  IBP B 601       4.991  19.098  18.010  1.00 29.03     0.189 C 
HETATM    2  O1  IBP B 601       5.428  20.308  17.942  1.00 29.40    -0.647 OA
HETATM    3  O2  IBP B 601       4.055  18.677  17.263  1.00 26.61    -0.647 OA
ENDROOT
BRANCH   1   4
HETATM    4  C6  IBP B 601       5.596  18.118  18.990  1.00 22.26     0.110 C 
HETATM    5  C7  IBP B 601       7.100  18.011  18.836  1.00 26.57     0.016 C 
BRANCH   4   6
HETATM    6  C8  IBP B 601       5.162  18.395  20.417  1.00 25.96    -0.012 A 
HETATM    7  C13 IBP B 601       3.982  19.071  20.728  1.00 22.96    -0.004 A 
HETATM    8  C12 IBP B 601       3.676  19.291  22.074  1.00 22.28    -0.005 A 
HETATM    9  C11 IBP B 601       4.494  18.857  23.102  1.00 29.37    -0.022 A 
HETATM   10  C10 IBP B 601       5.679  18.194  22.778  1.00 26.92    -0.005 A 
HETATM   11  C9  IBP B 601       5.991  17.975  21.447  1.00 24.90    -0.004 A 
BRANCH   9  12
HETATM   12  C2  IBP B 601       4.136  19.117  24.567  1.00 23.90     0.026 C 
BRANCH  12  13
HETATM   13  C3  IBP B 601       3.230  20.327  24.733  1.00 23.93     0.004 C 
HETATM   14  C4  IBP B 601       1.875  19.885  25.286  1.00 24.36     0.000 C 
HETATM   15  C5  IBP B 601       3.852  21.252  25.766  1.00 25.40     0.000 C 
ENDBRANCH  12  13
ENDBRANCH   9  12
ENDBRANCH   4   6
ENDBRANCH   1   4
TORSDOF 4
ENDMDL
MODEL 4
REMARK VINA RESULT:      -2.9      1.805      2.533
REMARK  4 active torsions:
REMARK  status: ('A' for Active; 'I' for Inactive)
REMARK    1  A    between atoms: C1_1  and  C6_6 
REMARK    2  A    between atoms: C11_11  and  C2_2 
REMARK    3  A    between atoms: C2_2  and  C3_3 
REMARK    4  A    between atoms: C6_6  and  C8_8 
ROOT
HETATM    1  C1  IBP B 601       4.487  17.000  18.779  1.00 29.03     0.189 C 
HETATM    2  O1  IBP B 601       3.692  17.279  17.805  1.00 29.40    -0.647 OA
HETATM    3  O2  IBP B 601       4.542  15.840  19.293  1.00 26.61    -0.647 OA
ENDROOT
BRANCH   1   4
HETATM    4  C6  IBP B 601       5.407  18.058  19.346  1.00 22.26     0.110 C 
HETATM    5  C7  IBP B 601       5.473  19.289  18.465  1.00 26.57     0.016 C 
BRANCH   4   6
HETATM    6  C8  IBP B 601       5.084  18.379  20.794  1.00 25.96    -0.012 A 
HETATM    7  C13 IBP B 601       5.906  17.993  21.852  1.00 22.96    -0.004 A 
HETATM    8  C12 IBP B 601       5.516  18.324  23.153  1.00 22.28    -0.005 A 
HETATM    9  C11 IBP B 601       4.354  19.024  23.424  1.00 29.37    -0.022 A 
HETATM   10  C10 IBP B 601       3.533  19.393  22.358  1.00 26.92    -0.005 A 
HETATM   11  C9  IBP B 601       3.911  19.067  21.066  1.00 24.90    -0.004 A 
BRANCH   9  12
HETATM   12  C2  IBP B 601       3.949  19.369  24.859  1.00 23.90     0.026 C 
BRANCH  12  13
HETATM   13  C3  IBP B 601       3.212  20.696  24.947  1.00 23.93     0.004 C 
HETATM   14  C4  IBP B 601       1.806  20.468  25.504  1.00 24.36     0.000 C 
HETATM   15  C5  IBP B 601       3.944  21.586  25.936  1.00 25.40     0.000 C 
ENDBRANCH  12  13
ENDBRANCH   9  12
ENDBRANCH   4   6
ENDBRANCH   1   4
TORSDOF 4
ENDMDL
MODEL 5
REMARK VINA RESULT:      -2.9      3.333      6.122
REMARK  4 active torsions:
REMARK  status: ('A' for Active; 'I' for Inactive)
REMARK    1  A    between atoms: C1_1  and  C6_6 
REMARK    2  A    between atoms: C11_11  and  C2_2 
REMARK    3  A    between atoms: C2_2  and  C3_3 
REMARK    4  A    between atoms: C6_6  and  C8_8 
ROOT
HETATM    1  C1  IBP B 601       2.249  18.688  24.572  1.00 29.03     0.189 C 
HETATM    2  O1  IBP B 601       1.083  19.234  24.508  1.00 29.40    -0.647 OA
HETATM    3  O2  IBP B 601       2.403  17.459  24.854  1.00 26.61    -0.647 OA
ENDROOT
BRANCH   1   4
HETATM    4  C6  IBP B 601       3.493  19.502  24.297  1.00 22.26     0.110 C 
HETATM    5  C7  IBP B 601       4.417  19.555  25.498  1.00 26.57     0.016 C 
BRANCH   4   6
HETATM    6  C8  IBP B 601       4.195  19.062  23.026  1.00 25.96    -0.012 A 
HETATM    7  C13 IBP B 601       3.671  19.300  21.756  1.00 22.96    -0.004 A 
HETATM    8  C12 IBP B 601       4.385  18.843  20.645  1.00 22.28    -0.005 A 
HETATM    9  C11 IBP B 601       5.591  18.174  20.761  1.00 29.37    -0.022 A 
HETATM   10  C10 IBP B 601       6.098  17.930  22.038  1.00 26.92    -0.005 A 
HETATM   11  C9  IBP B 601       5.395  18.377  23.144  1.00 24.90    -0.004 A 
BRANCH   9  12
HETATM   12  C2  IBP B 601       6.349  17.681  19.527  1.00 23.90     0.026 C 
BRANCH  12  13
HETATM   13  C3  IBP B 601       6.065  18.531  18.299  1.00 23.93     0.004 C 
HETATM   14  C4  IBP B 601       7.302  19.360  17.949  1.00 24.36     0.000 C 
HETATM   15  C5  IBP B 601       5.804  17.604  17.124  1.00 25.40     0.000 C 
ENDBRANCH  12  13
ENDBRANCH   9  12
ENDBRANCH   4   6
ENDBRANCH   1   4
TORSDOF 4
ENDMDL
MODEL 6
REMARK VINA RESULT:      -2.9      2.040      3.043
REMARK  4 active torsions:
REMARK  status: ('A' for Active; 'I' for Inactive)
REMARK    1  A    between atoms: C1_1  and  C6_6 
REMARK    2  A    between atoms: C11_11  and  C2_2 
REMARK    3  A    between atoms: C2_2  and  C3_3 
REMARK    4  A    between atoms: C6_6  and  C8_8 
ROOT
HETATM    1  C1  IBP B 601       4.745  17.041  19.589  1.00 29.03     0.189 C 
HETATM    2  O1  IBP B 601       5.666  16.256  19.147  1.00 29.40    -0.647 OA
HETATM    3  O2  IBP B 601       3.526  16.690  19.638  1.00 26.61    -0.647 OA
ENDROOT
BRANCH   1   4
HETATM    4  C6  IBP B 601       5.092  18.427  20.085  1.00 22.26     0.110 C 
HETATM    5  C7  IBP B 601       4.258  19.500  19.413  1.00 26.57     0.016 C 
BRANCH   4   6
HETATM    6  C8  IBP B 601       5.065  18.516  21.600  1.00 25.96    -0.012 A 
HETATM    7  C13 IBP B 601       6.066  17.969  22.403  1.00 22.96    -0.004 A 
HETATM    8  C12 IBP B 601       5.945  18.090  23.790  1.00 22.28    -0.005 A 
HETATM    9  C11 IBP B 601       4.878  18.736  24.390  1.00 29.37    -0.022 A 
HETATM   10  C10 IBP B 601       3.877  19.267  23.575  1.00 26.92    -0.005 A 
HETATM   11  C9  IBP B 601       3.988  19.149  22.200  1.00 24.90    -0.004 A 
BRANCH   9  12
HETATM   12  C2  IBP B 601       4.770  18.849  25.912  1.00 23.90     0.026 C 
BRANCH  12  13
HETATM   13  C3  IBP B 601       5.674  19.935  26.474  1.00 23.93     0.004 C 
HETATM   14  C4  IBP B 601       4.869  21.218  26.685  1.00 24.36     0.000 C 
HETATM   15  C5  IBP B 601       6.165  19.489  27.841  1.00 25.40     0.000 C 
ENDBRANCH  12  13
ENDBRANCH   9  12
ENDBRANCH   4   6
ENDBRANCH   1   4
TORSDOF 4
ENDMDL
