REMARK VINA RESULT:      -7.6      0.000      0.000
REMARK  3 active torsions:
REMARK  status: ('A' for Active; 'I' for Inactive)
REMARK    1  A    between atoms: C1_3  and  C3_5 
REMARK    2  A    between atoms: C2_4  and  C4_6 
REMARK    3  A    between atoms: C3_5  and  C4_6 
ROOT
HETATM    1  O1  UNL     1       7.517  -9.552  56.173  1.00  0.00    -0.283 OA
HETATM    2  C3  UNL     1       7.896  -9.788  55.020  1.00  0.00     0.234 C 
ENDROOT
BRANCH   2   3
HETATM    3  C1  UNL     1       9.290  -9.915  54.628  1.00  0.00     0.042 A 
HETATM    4  C5  UNL     1      10.027  -8.779  54.291  1.00  0.00     0.003 A 
HETATM    5  C9  UNL     1      11.364  -8.900  53.915  1.00  0.00     0.000 A 
HETATM    6  C13 UNL     1      11.967 -10.158  53.878  1.00  0.00     0.000 A 
HETATM    7  C11 UNL     1      11.231 -11.294  54.215  1.00  0.00     0.000 A 
HETATM    8  C7  UNL     1       9.893 -11.172  54.590  1.00  0.00     0.003 A 
ENDBRANCH   2   3
BRANCH   2   9
HETATM    9  C4  UNL     1       6.782  -9.918  54.008  1.00  0.00     0.234 C 
HETATM   10  O2  UNL     1       5.968 -10.807  54.207  1.00  0.00    -0.283 OA
BRANCH   9  11
HETATM   11  C2  UNL     1       6.711  -8.999  52.850  1.00  0.00     0.042 A 
HETATM   12  C6  UNL     1       6.709  -9.527  51.572  1.00  0.00     0.003 A 
HETATM   13  C10 UNL     1       6.641  -8.661  50.481  1.00  0.00     0.000 A 
HETATM   14  C14 UNL     1       6.576  -7.284  50.687  1.00  0.00     0.000 A 
HETATM   15  C12 UNL     1       6.578  -6.771  51.984  1.00  0.00     0.000 A 
HETATM   16  C8  UNL     1       6.647  -7.637  53.076  1.00  0.00     0.003 A 
ENDBRANCH   9  11
ENDBRANCH   2   9
TORSDOF 3
