MODEL 1
REMARK VINA RESULT:      -7.6      0.000      0.000
REMARK  3 active torsions:
REMARK  status: ('A' for Active; 'I' for Inactive)
REMARK    1  A    between atoms: C1_3  and  C3_5 
REMARK    2  A    between atoms: C2_4  and  C4_6 
REMARK    3  A    between atoms: C3_5  and  C4_6 
ROOT
HETATM    1  O1  UNL     1       7.517  -9.552  56.173  1.00  0.00    -0.283 OA
HETATM    2  C3  UNL     1       7.896  -9.788  55.020  1.00  0.00     0.234 C 
ENDROOT
BRANCH   2   3
HETATM    3  C1  UNL     1       9.290  -9.915  54.628  1.00  0.00     0.042 A 
HETATM    4  C5  UNL     1      10.027  -8.779  54.291  1.00  0.00     0.003 A 
HETATM    5  C9  UNL     1      11.364  -8.900  53.915  1.00  0.00     0.000 A 
HETATM    6  C13 UNL     1      11.967 -10.158  53.878  1.00  0.00     0.000 A 
HETATM    7  C11 UNL     1      11.231 -11.294  54.215  1.00  0.00     0.000 A 
HETATM    8  C7  UNL     1       9.893 -11.172  54.590  1.00  0.00     0.003 A 
ENDBRANCH   2   3
BRANCH   2   9
HETATM    9  C4  UNL     1       6.782  -9.918  54.008  1.00  0.00     0.234 C 
HETATM   10  O2  UNL     1       5.968 -10.807  54.207  1.00  0.00    -0.283 OA
BRANCH   9  11
HETATM   11  C2  UNL     1       6.711  -8.999  52.850  1.00  0.00     0.042 A 
HETATM   12  C6  UNL     1       6.709  -9.527  51.572  1.00  0.00     0.003 A 
HETATM   13  C10 UNL     1       6.641  -8.661  50.481  1.00  0.00     0.000 A 
HETATM   14  C14 UNL     1       6.576  -7.284  50.687  1.00  0.00     0.000 A 
HETATM   15  C12 UNL     1       6.578  -6.771  51.984  1.00  0.00     0.000 A 
HETATM   16  C8  UNL     1       6.647  -7.637  53.076  1.00  0.00     0.003 A 
ENDBRANCH   9  11
ENDBRANCH   2   9
TORSDOF 3
ENDMDL
MODEL 2
REMARK VINA RESULT:      -7.6      0.046      1.709
REMARK  3 active torsions:
REMARK  status: ('A' for Active; 'I' for Inactive)
REMARK    1  A    between atoms: C1_3  and  C3_5 
REMARK    2  A    between atoms: C2_4  and  C4_6 
REMARK    3  A    between atoms: C3_5  and  C4_6 
ROOT
HETATM    1  O1  UNL     1       7.543  -9.531  56.224  1.00  0.00    -0.283 OA
HETATM    2  C3  UNL     1       7.904  -9.771  55.065  1.00  0.00     0.234 C 
ENDROOT
BRANCH   2   3
HETATM    3  C1  UNL     1       9.292  -9.905  54.654  1.00  0.00     0.042 A 
HETATM    4  C5  UNL     1       9.883 -11.167  54.593  1.00  0.00     0.003 A 
HETATM    5  C9  UNL     1      11.214 -11.296  54.198  1.00  0.00     0.000 A 
HETATM    6  C13 UNL     1      11.955 -10.163  53.862  1.00  0.00     0.000 A 
HETATM    7  C11 UNL     1      11.364  -8.901  53.922  1.00  0.00     0.000 A 
HETATM    8  C7  UNL     1      10.033  -8.772  54.318  1.00  0.00     0.003 A 
ENDBRANCH   2   3
BRANCH   2   9
HETATM    9  C4  UNL     1       6.775  -9.896  54.070  1.00  0.00     0.234 C 
HETATM   10  O2  UNL     1       5.948 -10.768  54.293  1.00  0.00    -0.283 OA
BRANCH   9  11
HETATM   11  C2  UNL     1       6.705  -8.994  52.899  1.00  0.00     0.042 A 
HETATM   12  C6  UNL     1       6.650  -7.628  53.105  1.00  0.00     0.003 A 
HETATM   13  C10 UNL     1       6.585  -6.778  52.001  1.00  0.00     0.000 A 
HETATM   14  C14 UNL     1       6.576  -7.309  50.713  1.00  0.00     0.000 A 
HETATM   15  C12 UNL     1       6.632  -8.690  50.526  1.00  0.00     0.000 A 
HETATM   16  C8  UNL     1       6.697  -9.541  51.630  1.00  0.00     0.003 A 
ENDBRANCH   9  11
ENDBRANCH   2   9
TORSDOF 3
ENDMDL
MODEL 3
REMARK VINA RESULT:      -7.5      0.113      4.945
REMARK  3 active torsions:
REMARK  status: ('A' for Active; 'I' for Inactive)
REMARK    1  A    between atoms: C1_3  and  C3_5 
REMARK    2  A    between atoms: C2_4  and  C4_6 
REMARK    3  A    between atoms: C3_5  and  C4_6 
ROOT
HETATM    1  O1  UNL     1       6.145 -10.933  54.174  1.00  0.00    -0.283 OA
HETATM    2  C3  UNL     1       6.897  -9.973  53.970  1.00  0.00     0.234 C 
ENDROOT
BRANCH   2   3
HETATM    3  C1  UNL     1       6.777  -9.067  52.839  1.00  0.00     0.042 A 
HETATM    4  C5  UNL     1       6.722  -9.575  51.540  1.00  0.00     0.003 A 
HETATM    5  C9  UNL     1       6.606  -8.706  50.456  1.00  0.00     0.000 A 
HETATM    6  C13 UNL     1       6.543  -7.329  50.669  1.00  0.00     0.000 A 
HETATM    7  C11 UNL     1       6.597  -6.821  51.967  1.00  0.00     0.000 A 
HETATM    8  C7  UNL     1       6.714  -7.690  53.052  1.00  0.00     0.003 A 
ENDBRANCH   2   3
BRANCH   2   9
HETATM    9  C4  UNL     1       7.997  -9.810  54.992  1.00  0.00     0.234 C 
HETATM   10  O2  UNL     1       7.645  -9.578  56.138  1.00  0.00    -0.283 OA
BRANCH   9  11
HETATM   11  C2  UNL     1       9.417  -9.932  54.590  1.00  0.00     0.042 A 
HETATM   12  C6  UNL     1      10.126  -8.788  54.273  1.00  0.00     0.003 A 
HETATM   13  C10 UNL     1      11.464  -8.903  53.896  1.00  0.00     0.000 A 
HETATM   14  C14 UNL     1      12.068 -10.158  53.842  1.00  0.00     0.000 A 
HETATM   15  C12 UNL     1      11.335 -11.300  54.166  1.00  0.00     0.000 A 
HETATM   16  C8  UNL     1       9.996 -11.186  54.543  1.00  0.00     0.003 A 
ENDBRANCH   9  11
ENDBRANCH   2   9
TORSDOF 3
ENDMDL
