@<TRIPOS>MOLECULE
benzil_mol2_vinabestchimera
26 27 1 0 0
SMALL
AMBER ff14SB


@<TRIPOS>ATOM
      1 O1          7.5170   -9.5520   56.1730 O.2       1 UNL   -0.2849
      2 C3          7.8960   -9.7880   55.0200 C.2       1 UNL    0.2330
      3 C1          9.2900   -9.9150   54.6280 C.ar      1 UNL    0.0260
      4 C5         10.0270   -8.7790   54.2910 C.ar      1 UNL   -0.0509
      5 C9         11.3640   -8.9000   53.9150 C.ar      1 UNL   -0.0615
      6 C13        11.9670  -10.1580   53.8780 C.ar      1 UNL   -0.0622
      7 C11        11.2310  -11.2940   54.2150 C.ar      1 UNL   -0.0615
      8 C7          9.8930  -11.1720   54.5900 C.ar      1 UNL   -0.0509
      9 C4          6.7820   -9.9180   54.0080 C.2       1 UNL    0.2330
     10 O2          5.9680  -10.8070   54.2070 O.2       1 UNL   -0.2849
     11 C2          6.7110   -8.9990   52.8500 C.ar      1 UNL    0.0260
     12 C6          6.7090   -9.5270   51.5720 C.ar      1 UNL   -0.0509
     13 C10         6.6410   -8.6610   50.4810 C.ar      1 UNL   -0.0615
     14 C14         6.5760   -7.2840   50.6870 C.ar      1 UNL   -0.0622
     15 C12         6.5780   -6.7710   51.9840 C.ar      1 UNL   -0.0615
     16 C8          6.6470   -7.6370   53.0760 C.ar      1 UNL   -0.0509
     17 H5          9.5612   -7.8051   54.3215 H         1 UNL    0.0630
     18 H9         11.9330   -8.0204   53.6524 H         1 UNL    0.0623
     19 H13        13.0032  -10.2520   53.5885 H         1 UNL    0.0623
     20 H11        11.6970  -12.2678   54.1856 H         1 UNL    0.0623
     21 H7          9.3235  -12.0517   54.8511 H         1 UNL    0.0630
     22 H6          6.7594  -10.5952   51.4208 H         1 UNL    0.0630
     23 H10         6.6387   -9.0573   49.4764 H         1 UNL    0.0623
     24 H14         6.5240   -6.6138   49.8417 H         1 UNL    0.0623
     25 H12         6.5262   -5.7040   52.1431 H         1 UNL    0.0623
     26 H8          6.6503   -7.2484   54.0837 H         1 UNL    0.0630
@<TRIPOS>BOND
     1    1    2 2
     2    2    3 1
     3    2    9 2
     4    3    4 ar
     5    3    8 ar
     6    4    5 ar
     7    5    6 ar
     8    6    7 ar
     9    7    8 ar
    10    9   10 2
    11    9   11 1
    12   11   12 ar
    13   11   16 ar
    14   12   13 ar
    15   13   14 ar
    16   14   15 ar
    17   15   16 ar
    18   17    4 1
    19   18    5 1
    20   19    6 1
    21   20    7 1
    22   21    8 1
    23   22   12 1
    24   23   13 1
    25   24   14 1
    26   25   15 1
    27   26   16 1

