REMARK  3 active torsions:
REMARK  status: ('A' for Active; 'I' for Inactive)
REMARK    1  A    between atoms: C1_3  and  C3_5 
REMARK    2  A    between atoms: C2_4  and  C4_6 
REMARK    3  A    between atoms: C3_5  and  C4_6 
ROOT
HETATM    1  O1  UNL     1      -0.579   1.972  -1.389  1.00  0.00    -0.283 OA
HETATM    2  C3  UNL     1      -0.614   1.182  -0.438  1.00  0.00     0.234 C 
ENDROOT
BRANCH   2   3
HETATM    3  C1  UNL     1      -1.740   0.312  -0.140  1.00  0.00     0.042 A 
HETATM    4  C5  UNL     1      -1.696  -0.532   0.970  1.00  0.00     0.003 A 
HETATM    5  C9  UNL     1      -2.776  -1.366   1.256  1.00  0.00     0.000 A 
HETATM    6  C13 UNL     1      -3.902  -1.356   0.433  1.00  0.00     0.000 A 
HETATM    7  C11 UNL     1      -3.947  -0.512  -0.677  1.00  0.00     0.000 A 
HETATM    8  C7  UNL     1      -2.866   0.322  -0.963  1.00  0.00     0.003 A 
ENDBRANCH   2   3
BRANCH   2   9
HETATM    9  C4  UNL     1       0.619   1.196   0.434  1.00  0.00     0.234 C 
HETATM   10  O2  UNL     1       0.611   1.975   1.375  1.00  0.00    -0.283 OA
BRANCH   9  11
HETATM   11  C2  UNL     1       1.758   0.299   0.135  1.00  0.00     0.042 A 
HETATM   12  C6  UNL     1       1.677  -0.550  -0.953  1.00  0.00     0.003 A 
HETATM   13  C10 UNL     1       2.751  -1.394  -1.235  1.00  0.00     0.000 A 
HETATM   14  C14 UNL     1       3.885  -1.374  -0.425  1.00  0.00     0.000 A 
HETATM   15  C12 UNL     1       3.947  -0.510   0.668  1.00  0.00     0.000 A 
HETATM   16  C8  UNL     1       2.873   0.335   0.951  1.00  0.00     0.003 A 
ENDBRANCH   9  11
ENDBRANCH   2   9
TORSDOF 3
