@<TRIPOS>MOLECULE
benzil_vinabest_2.pdb
26 27 1 0 0
SMALL
NO_CHARGES


@<TRIPOS>ATOM
      1 O1          7.5170   -9.5520   56.1730 O.2       1 UNL    0.0000
      2 C3          7.8960   -9.7880   55.0200 C.2       1 UNL    0.0000
      3 C1          9.2900   -9.9150   54.6280 C.ar      1 UNL    0.0000
      4 C5         10.0270   -8.7790   54.2910 C.ar      1 UNL    0.0000
      5 C9         11.3640   -8.9000   53.9150 C.ar      1 UNL    0.0000
      6 C13        11.9670  -10.1580   53.8780 C.ar      1 UNL    0.0000
      7 C11        11.2310  -11.2940   54.2150 C.ar      1 UNL    0.0000
      8 C7          9.8930  -11.1720   54.5900 C.ar      1 UNL    0.0000
      9 C4          6.7820   -9.9180   54.0080 C.2       1 UNL    0.0000
     10 O2          5.9680  -10.8070   54.2070 O.2       1 UNL    0.0000
     11 C2          6.7110   -8.9990   52.8500 C.ar      1 UNL    0.0000
     12 C6          6.7090   -9.5270   51.5720 C.ar      1 UNL    0.0000
     13 C10         6.6410   -8.6610   50.4810 C.ar      1 UNL    0.0000
     14 C14         6.5760   -7.2840   50.6870 C.ar      1 UNL    0.0000
     15 C12         6.5780   -6.7710   51.9840 C.ar      1 UNL    0.0000
     16 C8          6.6470   -7.6370   53.0760 C.ar      1 UNL    0.0000
     17 H5          9.5610   -7.8050   54.3220 H         1 UNL    0.0000
     18 H9         11.9330   -8.0200   53.6520 H         1 UNL    0.0000
     19 H13        13.0030  -10.2520   53.5890 H         1 UNL    0.0000
     20 H11        11.6970  -12.2680   54.1860 H         1 UNL    0.0000
     21 H7          9.3240  -12.0520   54.8510 H         1 UNL    0.0000
     22 H6          6.7590  -10.5950   51.4210 H         1 UNL    0.0000
     23 H10         6.6390   -9.0570   49.4760 H         1 UNL    0.0000
     24 H14         6.5240   -6.6140   49.8420 H         1 UNL    0.0000
     25 H12         6.5260   -5.7040   52.1430 H         1 UNL    0.0000
     26 H8          6.6500   -7.2480   54.0840 H         1 UNL    0.0000
@<TRIPOS>BOND
     1    3    8 ar
     2    3    4 ar
     3    3    2 1
     4   13   14 ar
     5   13   23 1
     6   13   12 ar
     7    7   20 1
     8    7    8 ar
     9    7    6 ar
    10   15   14 ar
    11   15   25 1
    12   15   16 ar
    13    6   19 1
    14    6    5 ar
    15   14   24 1
    16   11    9 1
    17   11   16 ar
    18   11   12 ar
    19    2    9 2
    20    2    1 2
    21    9   10 2
    22    4   17 1
    23    4    5 ar
    24   12   22 1
    25    8   21 1
    26   16   26 1
    27    5   18 1
